/*--------------------------------*- C++ -*----------------------------------*\
| =========                 |                                                 |
| \\      /  F ield         | OpenFOAM: The Open Source CFD Toolbox           |
|  \\    /   O peration     | Version:  v2006                                 |
|   \\  /    A nd           | Website:  www.openfoam.com                      |
|    \\/     M anipulation  |                                                 |
\*---------------------------------------------------------------------------*/
FoamFile
{
    version     2.0;
    format      ascii;
    class       dictionary;
    location    "../system";
    object      fvSolution;
}
// * * * * * * * * * * * * * * * * * * * * * * * * * * * * * * * * * * * * * //

SIMPLE
{
    nNonOrthogonalCorrectors 1;
    consistent  yes;
}

solvers
{
    p
    {
        solver          GAMG;
        smoother        GaussSeidel;
        cacheAgglomeration true;
        tolerance       1e-07;
        relTol          0.1;
    }
    
    Phi
    {
        $p;
    }
    
    
    "(U|k|omega)"
    {
        solver          smoothSolver;
        smoother        GaussSeidel;
        tolerance       1e-08;
        relTol          0.1;
        nSweeps         1;
    }  
}

relaxationFactors
{

    equations
    {
        U               0.9;   
        k               0.7;
        omega           0.7;
    }
}

cache
{
    grad(U);
}


// ************************************************************************* //
